Version 4
SHEET 1 1680 680
WIRE 448 -688 448 -704
WIRE -320 -560 -320 -640
WIRE -368 -544 -384 -544
WIRE 448 -528 448 -608
WIRE -624 -512 -624 -624
WIRE -208 -464 -320 -464
WIRE 240 -464 -208 -464
WIRE -464 -448 -464 -544
WIRE -464 -448 -512 -448
WIRE -704 -400 -736 -400
WIRE 448 -400 448 -448
WIRE 240 -320 240 -464
WIRE -1584 -272 -1584 -352
WIRE -736 -272 -736 -400
WIRE -736 -272 -1584 -272
WIRE 448 -208 448 -320
WIRE 336 0 272 0
WIRE 608 0 400 0
WIRE 32 128 -16 128
WIRE 144 128 96 128
WIRE 208 128 144 128
WIRE 272 128 272 0
WIRE 272 128 208 128
WIRE 304 128 272 128
WIRE 608 128 608 0
WIRE 608 128 400 128
WIRE 624 128 608 128
WIRE 672 128 624 128
WIRE -1392 160 -1392 96
WIRE -1056 176 -1056 144
WIRE 1008 192 1008 128
WIRE 624 208 624 128
WIRE 208 224 208 208
WIRE 352 224 352 192
WIRE 352 224 208 224
WIRE 352 304 352 288
WIRE 624 304 624 272
WIRE 624 304 352 304
WIRE 352 320 352 304
WIRE -1392 544 -1392 512
FLAG 352 320 0
FLAG -16 128 heating_north
FLAG 672 128 Vreg
FLAG -1056 256 0
FLAG -1056 144 Logic_pwm
FLAG 1008 272 0
FLAG 1008 128 Vreg
FLAG 448 -704 heating_north
FLAG -1392 240 0
FLAG -1392 96 V12V
FLAG -320 -640 V12V
FLAG -624 -624 V12V
FLAG -1584 -352 Logic_pwm
FLAG 144 192 0
FLAG -1392 624 0
FLAG -1392 512 glob_rst
FLAG 240 -320 heating_north
FLAG -624 -288 0
FLAG -208 -400 0
FLAG 448 -208 0
SYMBOL res 192 112 R0
SYMATTR InstName R1
SYMATTR Value 10k
SYMBOL zener 368 288 R180
WINDOW 0 24 64 Left 2
WINDOW 3 24 0 Left 2
SYMATTR InstName D1
SYMATTR Value BZX384B7V5
SYMATTR Description Diode
SYMATTR Type diode
SYMBOL cap 608 208 R0
SYMATTR InstName C1
SYMATTR Value 1µ
SYMATTR SpiceLine V=12 Rser=0.1
SYMBOL npn 304 192 R270
SYMATTR InstName Q1
SYMATTR Value 2N2222A
SYMBOL voltage -1056 160 R0
WINDOW 123 0 0 Left 2
WINDOW 39 24 124 Left 2
SYMATTR InstName V1
SYMATTR Value PULSE(0 5 1m 10n 10n 100u 1m)
SYMATTR SpiceLine Rser=0.1
SYMBOL current 1008 192 R0
WINDOW 123 0 0 Left 2
WINDOW 39 0 0 Left 2
SYMATTR InstName I1
SYMATTR Value PULSE(10u 1m 0 100n 100n 1u 5u)
SYMBOL diode 400 -16 R90
WINDOW 0 0 32 VBottom 2
WINDOW 3 32 32 VTop 2
SYMATTR InstName D2
SYMATTR Value 1N4148
SYMBOL diode 32 144 R270
WINDOW 0 32 32 VTop 2
WINDOW 3 0 32 VBottom 2
SYMATTR InstName D3
SYMATTR Value 1N4148
SYMBOL ind 432 -544 R0
SYMATTR InstName L1
SYMATTR Value 100µ
SYMBOL res 432 -416 R0
SYMATTR InstName R2
SYMATTR Value 1.4
SYMBOL voltage -1392 144 R0
WINDOW 123 0 0 Left 2
WINDOW 39 24 124 Left 2
SYMATTR InstName V2
SYMATTR Value 12
SYMATTR SpiceLine Rser=0.1
SYMBOL res -368 -560 R90
WINDOW 0 0 56 VBottom 2
WINDOW 3 32 56 VTop 2
SYMATTR InstName R3
SYMATTR Value 1
SYMBOL cap 128 128 R0
SYMATTR InstName C2
SYMATTR Value 1µ
SYMBOL ind 432 -704 R0
SYMATTR InstName L2
SYMATTR Value 100µ
SYMBOL voltage -1392 528 R0
WINDOW 123 0 0 Left 2
WINDOW 39 24 124 Left 2
SYMATTR InstName V3
SYMATTR Value PULSE(5 0 100u 10n 10n 100u 200u 1)
SYMATTR SpiceLine Rser=0.1
SYMBOL pmos -368 -464 M180
SYMATTR InstName M1
SYMATTR Value IRF7343P
SYMBOL MosfetDrv\\el7182c -640 -352 R0
SYMATTR InstName U1
SYMBOL schottky -192 -400 R180
WINDOW 0 24 64 Left 2
WINDOW 3 24 0 Left 2
SYMATTR InstName D4
SYMATTR Value MBR0520L
SYMATTR Description Diode
SYMATTR Type diode
TEXT -1090 328 Left 2 !.tran 100mm
TEXT 1032 152 Left 2 ;Emulate Thermocouple amplifier (Static or pulsated load)
TEXT 544 -424 Left 2 ;soldering iron model
TEXT -1088 408 Left 2 !.include 74hc.lib
TEXT -1080 456 Left 2 !.param Radj=100k
TEXT -1072 496 Left 2 !#.step param Radj 5k 100k 10k
TEXT -1048 -720 Left 2 ;Add pull-ups for initial state
